data_BN-5GPA-OPT-noR-rho
_audit_creation_date              2020-11-21
_audit_creation_method            'Materials Studio'
_symmetry_space_group_name_H-M    'P63/MMC'
_symmetry_Int_Tables_number       194
_symmetry_cell_setting            hexagonal
loop_
_symmetry_equiv_pos_as_xyz
  x,y,z
  -y,x-y,z
  -x+y,-x,z
  -x,-y,z+1/2
  y,-x+y,z+1/2
  x-y,x,z+1/2
  y,x,-z
  x-y,-y,-z
  -x,-x+y,-z
  -y,-x,-z+1/2
  -x+y,y,-z+1/2
  x,x-y,-z+1/2
  -x,-y,-z
  y,-x+y,-z
  x-y,x,-z
  x,y,-z+1/2
  -y,x-y,-z+1/2
  -x+y,-x,-z+1/2
  -y,-x,z
  -x+y,y,z
  x,x-y,z
  y,x,z+1/2
  x-y,-y,z+1/2
  -x,-x+y,z+1/2
_cell_length_a                    2.5031
_cell_length_b                    2.5031
_cell_length_c                    6.1793
_cell_angle_alpha                 90.0000
_cell_angle_beta                  90.0000
_cell_angle_gamma                 120.0000
loop_
_atom_site_label
_atom_site_type_symbol
_atom_site_fract_x
_atom_site_fract_y
_atom_site_fract_z
_atom_site_U_iso_or_equiv
_atom_site_adp_type
_atom_site_occupancy
B1     B     0.33333   0.66667   0.25000   0.00000  Uiso   1.00
N3     N     0.33333   0.66667   0.75000   0.00000  Uiso   1.00
loop_
_geom_bond_atom_site_label_1
_geom_bond_atom_site_label_2
_geom_bond_distance
_geom_bond_site_symmetry_2
_ccdc_geom_bond_type
B1     N3      1.445   4_664 S
B1     N3      1.445   4_674 S
B1     N3      1.445   4_564 S
N3     B1      1.445   4_665 S
N3     B1      1.445   4_675 S
N3     B1      1.445   4_565 S
